network/glm/common/Line Configs.glm

////////////************************************   OH Line Configs      ***********************************/////////////////////


object line_configuration {
	name conf_OHLine_4;
	conductor_A OH_BARE_SYSTEM_506;
	conductor_B OH_BARE_SYSTEM_506;
	conductor_C OH_BARE_SYSTEM_506;
	conductor_N OH_BARE_SYSTEM_506;
	spacing line_Spacing_OH;
};

object line_configuration {
	name conf_OHLine_8;
	conductor_A OH_BARE_SYSTEM_528;
	conductor_B OH_BARE_SYSTEM_528;
	conductor_C OH_BARE_SYSTEM_528;
	conductor_N OH_BARE_SYSTEM_528;
	spacing line_Spacing_OH;
};

object line_configuration {
	name conf_OHLine_9;
	conductor_A OH_11_33KV_COVERED_77;
	conductor_B OH_11_33KV_COVERED_77;
	conductor_C OH_11_33KV_COVERED_77;
	conductor_N OH_11_33KV_COVERED_77;
	spacing line_Spacing_OH_HV;
};

object line_configuration {
	name conf_OHLine_13;
	conductor_A OH_BARE_SYSTEM_42;
	conductor_B OH_BARE_SYSTEM_42;
	conductor_C OH_BARE_SYSTEM_42;
	conductor_N OH_BARE_SYSTEM_42;
	spacing line_Spacing_OH;
};

object line_configuration {
	name conf_OHLine_16;
	conductor_A OH_BUSBAR_9999;
	conductor_B OH_BUSBAR_9999;
	conductor_C OH_BUSBAR_9999;
	conductor_N OH_BUSBAR_9999;
	spacing line_Spacing_UG;
};

object line_configuration {
	name conf_OHLine_17;
	conductor_A OH_BARE_SYSTEM_42;
	conductor_B OH_BARE_SYSTEM_42;
	conductor_C OH_BARE_SYSTEM_42;
	conductor_N OH_BARE_SYSTEM_42;
	spacing line_Spacing_OH;
};

object line_configuration {
	name conf_OHLine_18;
	conductor_A OH_BUSBAR_6868;
	conductor_B OH_BUSBAR_6868;
	conductor_C OH_BUSBAR_6868;
	conductor_N OH_BUSBAR_6868;
	spacing line_Spacing_UG;
};

object line_configuration {
	name conf_OHLine_19;
	conductor_A OH_BARE_SYSTEM_42;
	conductor_B OH_BARE_SYSTEM_42;
	conductor_C OH_BARE_SYSTEM_42;
	conductor_N OH_BARE_SYSTEM_42;
	spacing line_Spacing_OH;
};

object line_configuration {
	name conf_OHLine_23;
	conductor_A OH_BARE_SYSTEM_22;
	conductor_B OH_BARE_SYSTEM_22;
	conductor_C OH_BARE_SYSTEM_22;
	conductor_N OH_BARE_SYSTEM_22;
	spacing line_Spacing_OH;
};

object line_configuration {
	name conf_OHLine_28;
	conductor_A OH_OPTICAL_FIBER_EARTHWIRE_83;
	conductor_B OH_OPTICAL_FIBER_EARTHWIRE_83;
	conductor_C OH_OPTICAL_FIBER_EARTHWIRE_83;
	conductor_N OH_OPTICAL_FIBER_EARTHWIRE_83;
	spacing line_Spacing_OH_HV;
};

object line_configuration {
	name conf_OHLine_31;
	conductor_A OH_MISC_COVERED_6;
	conductor_B OH_MISC_COVERED_6;
	conductor_C OH_MISC_COVERED_6;
	conductor_N OH_MISC_COVERED_6;
	spacing line_Spacing_OH;
};

object line_configuration {
	name conf_OHLine_32;
	conductor_A OH_MISC_COVERED_7;
	conductor_B OH_MISC_COVERED_7;
	conductor_C OH_MISC_COVERED_7;
	conductor_N OH_MISC_COVERED_7;
	spacing line_Spacing_OH;
};

object line_configuration {
	name conf_OHLine_33;
	conductor_A OH_MISC_COVERED_15;
	conductor_B OH_MISC_COVERED_15;
	conductor_C OH_MISC_COVERED_15;
	conductor_N OH_MISC_COVERED_15;
	spacing line_Spacing_OH;
};

object line_configuration {
	name conf_OHLine_34;
	conductor_A OH_MISC_COVERED_16;
	conductor_B OH_MISC_COVERED_16;
	conductor_C OH_MISC_COVERED_16;
	conductor_N OH_MISC_COVERED_16;
	spacing line_Spacing_OH;
};

object line_configuration {
	name conf_OHLine_36;
	conductor_A OH_BARE_SYSTEM_42;
	conductor_B OH_BARE_SYSTEM_42;
	conductor_C OH_BARE_SYSTEM_42;
	conductor_N OH_BARE_SYSTEM_42;
	spacing line_Spacing_OH;
};

object line_configuration {
	name conf_OHLine_43;
	conductor_A OH_BARE_SYSTEM_212;
	conductor_B OH_BARE_SYSTEM_212;
	conductor_C OH_BARE_SYSTEM_212;
	conductor_N OH_BARE_SYSTEM_212;
	spacing line_Spacing_OH;
};

object line_configuration {
	name conf_OHLine_44;
	conductor_A OH_BARE_SYSTEM_42;
	conductor_B OH_BARE_SYSTEM_42;
	conductor_C OH_BARE_SYSTEM_42;
	conductor_N OH_BARE_SYSTEM_42;
	spacing line_Spacing_OH;
};

object line_configuration {
	name conf_OHLine_48;
	conductor_A OH_BARE_SYSTEM_29;
	conductor_B OH_BARE_SYSTEM_29;
	conductor_C OH_BARE_SYSTEM_29;
	conductor_N OH_BARE_SYSTEM_29;
	spacing line_Spacing_OH;
};

object line_configuration {
	name conf_OHLine_49;
	conductor_A OH_BARE_SYSTEM_105;
	conductor_B OH_BARE_SYSTEM_105;
	conductor_C OH_BARE_SYSTEM_105;
	conductor_N OH_BARE_SYSTEM_105;
	spacing line_Spacing_OH;
};

object line_configuration {
	name conf_OHLine_51;
	conductor_A OH_BARE_SYSTEM_18;
	conductor_B OH_BARE_SYSTEM_18;
	conductor_C OH_BARE_SYSTEM_18;
	conductor_N OH_BARE_SYSTEM_18;
	spacing line_Spacing_OH;
};

object line_configuration {
	name conf_OHLine_52;
	conductor_A OH_BARE_SYSTEM_29;
	conductor_B OH_BARE_SYSTEM_29;
	conductor_C OH_BARE_SYSTEM_29;
	conductor_N OH_BARE_SYSTEM_29;
	spacing line_Spacing_OH;
};

object line_configuration {
	name conf_OHLine_53;
	conductor_A OH_BARE_SYSTEM_29;
	conductor_B OH_BARE_SYSTEM_29;
	conductor_C OH_BARE_SYSTEM_29;
	conductor_N OH_BARE_SYSTEM_29;
	spacing line_Spacing_OH;
};

object line_configuration {
	name conf_OHLine_54;
	conductor_A OH_BARE_SYSTEM_29;
	conductor_B OH_BARE_SYSTEM_29;
	conductor_C OH_BARE_SYSTEM_29;
	conductor_N OH_BARE_SYSTEM_29;
	spacing line_Spacing_OH;
};

object line_configuration {
	name conf_OHLine_56;
	conductor_A OH_BARE_SYSTEM_105;
	conductor_B OH_BARE_SYSTEM_105;
	conductor_C OH_BARE_SYSTEM_105;
	conductor_N OH_BARE_SYSTEM_105;
	spacing line_Spacing_OH;
};

object line_configuration {
	name conf_OHLine_57;
	conductor_A OH_BARE_SYSTEM_105;
	conductor_B OH_BARE_SYSTEM_105;
	conductor_C OH_BARE_SYSTEM_105;
	conductor_N OH_BARE_SYSTEM_105;
	spacing line_Spacing_OH;
};

object line_configuration {
	name conf_OHLine_58;
	conductor_A OH_BARE_SYSTEM_105;
	conductor_B OH_BARE_SYSTEM_105;
	conductor_C OH_BARE_SYSTEM_105;
	conductor_N OH_BARE_SYSTEM_105;
	spacing line_Spacing_OH;
};

object line_configuration {
	name conf_OHLine_59;
	conductor_A OH_BARE_SYSTEM_18;
	conductor_B OH_BARE_SYSTEM_18;
	conductor_C OH_BARE_SYSTEM_18;
	conductor_N OH_BARE_SYSTEM_18;
	spacing line_Spacing_OH;
};

object line_configuration {
	name conf_OHLine_61;
	conductor_A OH_BARE_SYSTEM_18;
	conductor_B OH_BARE_SYSTEM_18;
	conductor_C OH_BARE_SYSTEM_18;
	conductor_N OH_BARE_SYSTEM_18;
	spacing line_Spacing_OH;
};

object line_configuration {
	name conf_OHLine_66;
	conductor_A OH_BARE_SYSTEM_105;
	conductor_B OH_BARE_SYSTEM_105;
	conductor_C OH_BARE_SYSTEM_105;
	conductor_N OH_BARE_SYSTEM_105;
	spacing line_Spacing_OH;
};

object line_configuration {
	name conf_OHLine_67;
	conductor_A OH_BARE_SYSTEM_105;
	conductor_B OH_BARE_SYSTEM_105;
	conductor_C OH_BARE_SYSTEM_105;
	conductor_N OH_BARE_SYSTEM_105;
	spacing line_Spacing_OH;
};

object line_configuration {
	name conf_OHLine_69;
	conductor_A OH_BARE_BUNDLED_106;
	conductor_B OH_BARE_BUNDLED_106;
	conductor_C OH_BARE_BUNDLED_106;
	conductor_N OH_BARE_BUNDLED_106;
	spacing line_Spacing_ABC;
};

object line_configuration {
	name conf_OHLine_72;
	conductor_A OH_BARE_SYSTEM_106;
	conductor_B OH_BARE_SYSTEM_106;
	conductor_C OH_BARE_SYSTEM_106;
	conductor_N OH_BARE_SYSTEM_106;
	spacing line_Spacing_OH;
};

object line_configuration {
	name conf_OHLine_73;
	conductor_A OH_BARE_SYSTEM_114;
	conductor_B OH_BARE_SYSTEM_114;
	conductor_C OH_BARE_SYSTEM_114;
	conductor_N OH_BARE_SYSTEM_114;
	spacing line_Spacing_OH;
};

object line_configuration {
	name conf_OHLine_74;
	conductor_A OH_BARE_SYSTEM_114;
	conductor_B OH_BARE_SYSTEM_114;
	conductor_C OH_BARE_SYSTEM_114;
	conductor_N OH_BARE_SYSTEM_114;
	spacing line_Spacing_OH;
};

object line_configuration {
	name conf_OHLine_77;
	conductor_A OH_BARE_SYSTEM_119;
	conductor_B OH_BARE_SYSTEM_119;
	conductor_C OH_BARE_SYSTEM_119;
	conductor_N OH_BARE_SYSTEM_119;
	spacing line_Spacing_OH;
};

object line_configuration {
	name conf_OHLine_78;
	conductor_A OH_BARE_SYSTEM_119;
	conductor_B OH_BARE_SYSTEM_119;
	conductor_C OH_BARE_SYSTEM_119;
	conductor_N OH_BARE_SYSTEM_119;
	spacing line_Spacing_OH;
};

object line_configuration {
	name conf_OHLine_79;
	conductor_A OH_BARE_SYSTEM_119;
	conductor_B OH_BARE_SYSTEM_119;
	conductor_C OH_BARE_SYSTEM_119;
	conductor_N OH_BARE_SYSTEM_119;
	spacing line_Spacing_OH;
};

object line_configuration {
	name conf_OHLine_81;
	conductor_A OH_BARE_SYSTEM_129;
	conductor_B OH_BARE_SYSTEM_129;
	conductor_C OH_BARE_SYSTEM_129;
	conductor_N OH_BARE_SYSTEM_129;
	spacing line_Spacing_OH;
};

object line_configuration {
	name conf_OHLine_82;
	conductor_A OH_BARE_BUNDLED_130;
	conductor_B OH_BARE_BUNDLED_130;
	conductor_C OH_BARE_BUNDLED_130;
	conductor_N OH_BARE_BUNDLED_130;
	spacing line_Spacing_ABC;
};

object line_configuration {
	name conf_OHLine_83;
	conductor_A OH_BARE_SYSTEM_130;
	conductor_B OH_BARE_SYSTEM_130;
	conductor_C OH_BARE_SYSTEM_130;
	conductor_N OH_BARE_SYSTEM_130;
	spacing line_Spacing_OH;
};

object line_configuration {
	name conf_OHLine_84;
	conductor_A OH_BARE_SYSTEM_14;
	conductor_B OH_BARE_SYSTEM_14;
	conductor_C OH_BARE_SYSTEM_14;
	conductor_N OH_BARE_SYSTEM_14;
	spacing line_Spacing_OH;
};

object line_configuration {
	name conf_OHLine_86;
	conductor_A OH_BARE_SYSTEM_14;
	conductor_B OH_BARE_SYSTEM_14;
	conductor_C OH_BARE_SYSTEM_14;
	conductor_N OH_BARE_SYSTEM_14;
	spacing line_Spacing_OH;
};

object line_configuration {
	name conf_OHLine_87;
	conductor_A OH_BARE_SYSTEM_144;
	conductor_B OH_BARE_SYSTEM_144;
	conductor_C OH_BARE_SYSTEM_144;
	conductor_N OH_BARE_SYSTEM_144;
	spacing line_Spacing_OH;
};

object line_configuration {
	name conf_OHLine_89;
	conductor_A OH_11KV_ABC_150;
	conductor_B OH_11KV_ABC_150;
	conductor_C OH_11KV_ABC_150;
	conductor_N OH_11KV_ABC_150;
	spacing line_Spacing_ABC;
};

object line_configuration {
	name conf_OHLine_91;
	conductor_A OH_BARE_SYSTEM_158;
	conductor_B OH_BARE_SYSTEM_158;
	conductor_C OH_BARE_SYSTEM_158;
	conductor_N OH_BARE_SYSTEM_158;
	spacing line_Spacing_OH;
};

object line_configuration {
	name conf_OHLine_93;
	conductor_A OH_BARE_SYSTEM_34;
	conductor_B OH_BARE_SYSTEM_34;
	conductor_C OH_BARE_SYSTEM_34;
	conductor_N OH_BARE_SYSTEM_34;
	spacing line_Spacing_OH;
};

object line_configuration {
	name conf_OHLine_98;
	conductor_A OH_BARE_SYSTEM_34;
	conductor_B OH_BARE_SYSTEM_34;
	conductor_C OH_BARE_SYSTEM_34;
	conductor_N OH_BARE_SYSTEM_34;
	spacing line_Spacing_OH;
};

object line_configuration {
	name conf_OHLine_100;
	conductor_A OH_BARE_SYSTEM_34;
	conductor_B OH_BARE_SYSTEM_34;
	conductor_C OH_BARE_SYSTEM_34;
	conductor_N OH_BARE_SYSTEM_34;
	spacing line_Spacing_OH;
};

object line_configuration {
	name conf_OHLine_106;
	conductor_A OH_BARE_SYSTEM_408;
	conductor_B OH_BARE_SYSTEM_408;
	conductor_C OH_BARE_SYSTEM_408;
	conductor_N OH_BARE_SYSTEM_408;
	spacing line_Spacing_OH;
};

object line_configuration {
	name conf_OHLine_107;
	conductor_A OH_BARE_SYSTEM_337;
	conductor_B OH_BARE_SYSTEM_337;
	conductor_C OH_BARE_SYSTEM_337;
	conductor_N OH_BARE_SYSTEM_337;
	spacing line_Spacing_OH;
};

object line_configuration {
	name conf_OHLine_108;
	conductor_A OH_BARE_BUNDLED_214;
	conductor_B OH_BARE_BUNDLED_214;
	conductor_C OH_BARE_BUNDLED_214;
	conductor_N OH_BARE_BUNDLED_214;
	spacing line_Spacing_ABC;
};

object line_configuration {
	name conf_OHLine_109;
	conductor_A OH_BARE_SYSTEM_210;
	conductor_B OH_BARE_SYSTEM_210;
	conductor_C OH_BARE_SYSTEM_210;
	conductor_N OH_BARE_SYSTEM_210;
	spacing line_Spacing_OH;
};

object line_configuration {
	name conf_OHLine_118;
	conductor_A OH_BARE_SYSTEM_42;
	conductor_B OH_BARE_SYSTEM_42;
	conductor_C OH_BARE_SYSTEM_42;
	conductor_N OH_BARE_SYSTEM_42;
	spacing line_Spacing_OH;
};

object line_configuration {
	name conf_OHLine_119;
	conductor_A OH_BARE_SYSTEM_42;
	conductor_B OH_BARE_SYSTEM_42;
	conductor_C OH_BARE_SYSTEM_42;
	conductor_N OH_BARE_SYSTEM_42;
	spacing line_Spacing_OH;
};

object line_configuration {
	name conf_OHLine_121;
	conductor_A OH_BARE_SYSTEM_6;
	conductor_B OH_BARE_SYSTEM_6;
	conductor_C OH_BARE_SYSTEM_6;
	conductor_N OH_BARE_SYSTEM_6;
	spacing line_Spacing_OH;
};

object line_configuration {
	name conf_OHLine_122;
	conductor_A OH_BARE_SYSTEM_6;
	conductor_B OH_BARE_SYSTEM_6;
	conductor_C OH_BARE_SYSTEM_6;
	conductor_N OH_BARE_SYSTEM_6;
	spacing line_Spacing_OH;
};

object line_configuration {
	name conf_OHLine_123;
	conductor_A OH_BARE_SYSTEM_63;
	conductor_B OH_BARE_SYSTEM_63;
	conductor_C OH_BARE_SYSTEM_63;
	conductor_N OH_BARE_SYSTEM_63;
	spacing line_Spacing_OH;
};

object line_configuration {
	name conf_OHLine_124;
	conductor_A OH_BARE_SYSTEM_63;
	conductor_B OH_BARE_SYSTEM_63;
	conductor_C OH_BARE_SYSTEM_63;
	conductor_N OH_BARE_SYSTEM_63;
	spacing line_Spacing_OH;
};

object line_configuration {
	name conf_OHLine_126;
	conductor_A OH_BARE_SYSTEM_63;
	conductor_B OH_BARE_SYSTEM_63;
	conductor_C OH_BARE_SYSTEM_63;
	conductor_N OH_BARE_SYSTEM_63;
	spacing line_Spacing_OH;
};

object line_configuration {
	name conf_OHLine_129;
	conductor_A OH_BARE_SYSTEM_65;
	conductor_B OH_BARE_SYSTEM_65;
	conductor_C OH_BARE_SYSTEM_65;
	conductor_N OH_BARE_SYSTEM_65;
	spacing line_Spacing_OH;
};

object line_configuration {
	name conf_OHLine_131;
	conductor_A OH_BARE_SYSTEM_65;
	conductor_B OH_BARE_SYSTEM_65;
	conductor_C OH_BARE_SYSTEM_65;
	conductor_N OH_BARE_SYSTEM_65;
	spacing line_Spacing_OH;
};

object line_configuration {
	name conf_OHLine_132;
	conductor_A OH_BARE_SYSTEM_7;
	conductor_B OH_BARE_SYSTEM_7;
	conductor_C OH_BARE_SYSTEM_7;
	conductor_N OH_BARE_SYSTEM_7;
	spacing line_Spacing_OH;
};

object line_configuration {
	name conf_OHLine_133;
	conductor_A OH_BARE_SYSTEM_7;
	conductor_B OH_BARE_SYSTEM_7;
	conductor_C OH_BARE_SYSTEM_7;
	conductor_N OH_BARE_SYSTEM_7;
	spacing line_Spacing_OH;
};

object line_configuration {
	name conf_OHLine_134;
	conductor_A OH_BARE_SYSTEM_17;
	conductor_B OH_BARE_SYSTEM_17;
	conductor_C OH_BARE_SYSTEM_17;
	conductor_N OH_BARE_SYSTEM_17;
	spacing line_Spacing_OH;
};

object line_configuration {
	name conf_OHLine_138;
	conductor_A OH_BARE_SYSTEM_17;
	conductor_B OH_BARE_SYSTEM_17;
	conductor_C OH_BARE_SYSTEM_17;
	conductor_N OH_BARE_SYSTEM_17;
	spacing line_Spacing_OH;
};

object line_configuration {
	name conf_OHLine_139;
	conductor_A OH_BARE_SYSTEM_26;
	conductor_B OH_BARE_SYSTEM_26;
	conductor_C OH_BARE_SYSTEM_26;
	conductor_N OH_BARE_SYSTEM_26;
	spacing line_Spacing_OH;
};

object line_configuration {
	name conf_OHLine_142;
	conductor_A OH_BARE_SYSTEM_26;
	conductor_B OH_BARE_SYSTEM_26;
	conductor_C OH_BARE_SYSTEM_26;
	conductor_N OH_BARE_SYSTEM_26;
	spacing line_Spacing_OH;
};

object line_configuration {
	name conf_OHLine_144;
	conductor_A OH_BARE_SYSTEM_26;
	conductor_B OH_BARE_SYSTEM_26;
	conductor_C OH_BARE_SYSTEM_26;
	conductor_N OH_BARE_SYSTEM_26;
	spacing line_Spacing_OH;
};

object line_configuration {
	name conf_OHLine_146;
	conductor_A OH_BARE_SYSTEM_42;
	conductor_B OH_BARE_SYSTEM_42;
	conductor_C OH_BARE_SYSTEM_42;
	conductor_N OH_BARE_SYSTEM_42;
	spacing line_Spacing_OH;
};

object line_configuration {
	name conf_OHLine_167;
	conductor_A OH_BARE_SYSTEM_324;
	conductor_B OH_BARE_SYSTEM_324;
	conductor_C OH_BARE_SYSTEM_324;
	conductor_N OH_BARE_SYSTEM_324;
	spacing line_Spacing_OH;
};

object line_configuration {
	name conf_OHLine_184;
	conductor_A OH_OPTICAL_FIBER_EARTHWIRE_77;
	conductor_B OH_OPTICAL_FIBER_EARTHWIRE_77;
	conductor_C OH_OPTICAL_FIBER_EARTHWIRE_77;
	conductor_N OH_OPTICAL_FIBER_EARTHWIRE_77;
	spacing line_Spacing_OH_HV;
};

object line_configuration {
	name conf_OHLine_198;
	conductor_A OH_BARE_SYSTEM_210;
	conductor_B OH_BARE_SYSTEM_210;
	conductor_C OH_BARE_SYSTEM_210;
	conductor_N OH_BARE_SYSTEM_210;
	spacing line_Spacing_OH;
};

object line_configuration {
	name conf_OHLine_213;
	conductor_A OH_OPTICAL_FIBER_EARTHWIRE_78;
	conductor_B OH_OPTICAL_FIBER_EARTHWIRE_78;
	conductor_C OH_OPTICAL_FIBER_EARTHWIRE_78;
	conductor_N OH_OPTICAL_FIBER_EARTHWIRE_78;
	spacing line_Spacing_OH_HV;
};

object line_configuration {
	name conf_OHLine_214;
	conductor_A OH_BARE_SYSTEM_766;
	conductor_B OH_BARE_SYSTEM_766;
	conductor_C OH_BARE_SYSTEM_766;
	conductor_N OH_BARE_SYSTEM_766;
	spacing line_Spacing_OH;
};

object line_configuration {
	name conf_OHLine_218;
	conductor_A OH_OPTICAL_FIBER_EARTHWIRE_91;
	conductor_B OH_OPTICAL_FIBER_EARTHWIRE_91;
	conductor_C OH_OPTICAL_FIBER_EARTHWIRE_91;
	conductor_N OH_OPTICAL_FIBER_EARTHWIRE_91;
	spacing line_Spacing_OH_HV;
};

object line_configuration {
	name conf_OHLine_219;
	conductor_A OH_BARE_BUNDLED_506;
	conductor_B OH_BARE_BUNDLED_506;
	conductor_C OH_BARE_BUNDLED_506;
	conductor_N OH_BARE_BUNDLED_506;
	spacing line_Spacing_ABC;
};

object line_configuration {
	name conf_OHLine_221;
	conductor_A OH_BARE_BUNDLED_408;
	conductor_B OH_BARE_BUNDLED_408;
	conductor_C OH_BARE_BUNDLED_408;
	conductor_N OH_BARE_BUNDLED_408;
	spacing line_Spacing_ABC;
};

object line_configuration {
	name conf_OHLine_222;
	conductor_A OH_BUSBAR_79;
	conductor_B OH_BUSBAR_79;
	conductor_C OH_BUSBAR_79;
	conductor_N OH_BUSBAR_79;
	spacing line_Spacing_UG;
};

object line_configuration {
	name conf_OHLine_224;
	conductor_A OH_BUSBAR_1404;
	conductor_B OH_BUSBAR_1404;
	conductor_C OH_BUSBAR_1404;
	conductor_N OH_BUSBAR_1404;
	spacing line_Spacing_UG;
};

object line_configuration {
	name conf_OHLine_227;
	conductor_A OH_BARE_SYSTEM_9;
	conductor_B OH_BARE_SYSTEM_9;
	conductor_C OH_BARE_SYSTEM_9;
	conductor_N OH_BARE_SYSTEM_9;
	spacing line_Spacing_OH;
};

object line_configuration {
	name conf_OHLine_228;
	conductor_A OH_BARE_SYSTEM_9;
	conductor_B OH_BARE_SYSTEM_9;
	conductor_C OH_BARE_SYSTEM_9;
	conductor_N OH_BARE_SYSTEM_9;
	spacing line_Spacing_OH;
};

object line_configuration {
	name conf_OHLine_229;
	conductor_A OH_BARE_SYSTEM_18;
	conductor_B OH_BARE_SYSTEM_18;
	conductor_C OH_BARE_SYSTEM_18;
	conductor_N OH_BARE_SYSTEM_18;
	spacing line_Spacing_OH;
};

object line_configuration {
	name conf_OHLine_231;
	conductor_A OH_BARE_SYSTEM_17;
	conductor_B OH_BARE_SYSTEM_17;
	conductor_C OH_BARE_SYSTEM_17;
	conductor_N OH_BARE_SYSTEM_17;
	spacing line_Spacing_OH;
};

object line_configuration {
	name conf_OHLine_232;
	conductor_A OH_BARE_SYSTEM_17;
	conductor_B OH_BARE_SYSTEM_17;
	conductor_C OH_BARE_SYSTEM_17;
	conductor_N OH_BARE_SYSTEM_17;
	spacing line_Spacing_OH;
};

object line_configuration {
	name conf_OHLine_233;
	conductor_A OH_BARE_SYSTEM_18;
	conductor_B OH_BARE_SYSTEM_18;
	conductor_C OH_BARE_SYSTEM_18;
	conductor_N OH_BARE_SYSTEM_18;
	spacing line_Spacing_OH;
};

object line_configuration {
	name conf_OHLine_234;
	conductor_A OH_BARE_SYSTEM_18;
	conductor_B OH_BARE_SYSTEM_18;
	conductor_C OH_BARE_SYSTEM_18;
	conductor_N OH_BARE_SYSTEM_18;
	spacing line_Spacing_OH;
};

object line_configuration {
	name conf_OHLine_243;
	conductor_A OH_BARE_SYSTEM_18;
	conductor_B OH_BARE_SYSTEM_18;
	conductor_C OH_BARE_SYSTEM_18;
	conductor_N OH_BARE_SYSTEM_18;
	spacing line_Spacing_OH;
};

object line_configuration {
	name conf_OHLine_251;
	conductor_A OH_BARE_SYSTEM_194;
	conductor_B OH_BARE_SYSTEM_194;
	conductor_C OH_BARE_SYSTEM_194;
	conductor_N OH_BARE_SYSTEM_194;
	spacing line_Spacing_OH;
};

object line_configuration {
	name conf_OHLine_252;
	conductor_A OH_BARE_SYSTEM_22;
	conductor_B OH_BARE_SYSTEM_22;
	conductor_C OH_BARE_SYSTEM_22;
	conductor_N OH_BARE_SYSTEM_22;
	spacing line_Spacing_OH;
};

object line_configuration {
	name conf_OHLine_253;
	conductor_A OH_BARE_SYSTEM_22;
	conductor_B OH_BARE_SYSTEM_22;
	conductor_C OH_BARE_SYSTEM_22;
	conductor_N OH_BARE_SYSTEM_22;
	spacing line_Spacing_OH;
};

object line_configuration {
	name conf_OHLine_254;
	conductor_A OH_BARE_SYSTEM_23;
	conductor_B OH_BARE_SYSTEM_23;
	conductor_C OH_BARE_SYSTEM_23;
	conductor_N OH_BARE_SYSTEM_23;
	spacing line_Spacing_OH;
};

object line_configuration {
	name conf_OHLine_256;
	conductor_A OH_BARE_SYSTEM_38;
	conductor_B OH_BARE_SYSTEM_38;
	conductor_C OH_BARE_SYSTEM_38;
	conductor_N OH_BARE_SYSTEM_38;
	spacing line_Spacing_OH;
};

object line_configuration {
	name conf_OHLine_259;
	conductor_A OH_BARE_SYSTEM_408;
	conductor_B OH_BARE_SYSTEM_408;
	conductor_C OH_BARE_SYSTEM_408;
	conductor_N OH_BARE_SYSTEM_408;
	spacing line_Spacing_OH;
};

object line_configuration {
	name conf_OHLine_261;
	conductor_A OH_BARE_SYSTEM_42;
	conductor_B OH_BARE_SYSTEM_42;
	conductor_C OH_BARE_SYSTEM_42;
	conductor_N OH_BARE_SYSTEM_42;
	spacing line_Spacing_OH;
};

object line_configuration {
	name conf_OHLine_267;
	conductor_A OH_BARE_SYSTEM_42;
	conductor_B OH_BARE_SYSTEM_42;
	conductor_C OH_BARE_SYSTEM_42;
	conductor_N OH_BARE_SYSTEM_42;
	spacing line_Spacing_OH;
};

object line_configuration {
	name conf_OHLine_297;
	conductor_A OH_BARE_SYSTEM_9;
	conductor_B OH_BARE_SYSTEM_9;
	conductor_C OH_BARE_SYSTEM_9;
	conductor_N OH_BARE_SYSTEM_9;
	spacing line_Spacing_OH;
};

object line_configuration {
	name conf_OHLine_298;
	conductor_A OH_BARE_SYSTEM_9;
	conductor_B OH_BARE_SYSTEM_9;
	conductor_C OH_BARE_SYSTEM_9;
	conductor_N OH_BARE_SYSTEM_9;
	spacing line_Spacing_OH;
};

object line_configuration {
	name conf_OHLine_301;
	conductor_A OH_BARE_SYSTEM_9;
	conductor_B OH_BARE_SYSTEM_9;
	conductor_C OH_BARE_SYSTEM_9;
	conductor_N OH_BARE_SYSTEM_9;
	spacing line_Spacing_OH;
};

object line_configuration {
	name conf_OHLine_302;
	conductor_A OH_415V_ABC_95;
	conductor_B OH_415V_ABC_95;
	conductor_C OH_415V_ABC_95;
	conductor_N OH_415V_ABC_95;
	spacing line_Spacing_ABC;
};	

	object line_configuration {	
	name conf_OHLine_307;
	conductor_A OH_BARE_SYSTEM_18;
	conductor_B OH_BARE_SYSTEM_18;
	conductor_C OH_BARE_SYSTEM_18;
	conductor_N OH_BARE_SYSTEM_18;
	spacing line_Spacing_OH;
};

object line_configuration {
	name conf_OHLine_311;
	conductor_A OH_BARE_SYSTEM_9;
	conductor_B OH_BARE_SYSTEM_9;
	conductor_C OH_BARE_SYSTEM_9;
	conductor_N OH_BARE_SYSTEM_9;
	spacing line_Spacing_OH;
};	

object line_configuration {
	name conf_OHLine_312;
	conductor_A OH_BARE_SYSTEM_158;
	conductor_B OH_BARE_SYSTEM_158;
	conductor_C OH_BARE_SYSTEM_158;
	conductor_N OH_BARE_SYSTEM_158;
	spacing line_Spacing_OH;
};

object line_configuration {
	name conf_OHLine_318;
	conductor_A OH_BARE_SYSTEM_110;
	conductor_B OH_BARE_SYSTEM_110;
	conductor_C OH_BARE_SYSTEM_110;
	conductor_N OH_BARE_SYSTEM_110;
	spacing line_Spacing_OH;
};

object line_configuration {
	name conf_OHLine_319;
	conductor_A OH_BARE_SYSTEM_110;
	conductor_B OH_BARE_SYSTEM_110;
	conductor_C OH_BARE_SYSTEM_110;
	conductor_N OH_BARE_SYSTEM_110;
	spacing line_Spacing_OH;
};

object line_configuration {
	name conf_OHLine_329;
	conductor_A OH_BONDING_CABLE_300;
	conductor_B OH_BONDING_CABLE_300;
	conductor_C OH_BONDING_CABLE_300;
	conductor_N OH_BONDING_CABLE_300;
	spacing line_Spacing_ABC;
};

object line_configuration {
	name conf_OHLine_382;
	conductor_A OH_PILOT_CONTROL_SIGNAL_CABLE_9;
	conductor_B OH_PILOT_CONTROL_SIGNAL_CABLE_9;
	conductor_C OH_PILOT_CONTROL_SIGNAL_CABLE_9;
	conductor_N OH_PILOT_CONTROL_SIGNAL_CABLE_9;
	spacing line_Spacing_ABC;
};

object line_configuration {
	name conf_OHLine_401;
	conductor_A OH_OPTICAL_FIBER_EARTHWIRE_77;
	conductor_B OH_OPTICAL_FIBER_EARTHWIRE_77;
	conductor_C OH_OPTICAL_FIBER_EARTHWIRE_77;
	conductor_N OH_OPTICAL_FIBER_EARTHWIRE_77;
	spacing line_Spacing_OH_HV;
};

object line_configuration {
	name conf_OHLine_402;
	conductor_A OH_OPTICAL_FIBER_EARTHWIRE_77;
	conductor_B OH_OPTICAL_FIBER_EARTHWIRE_77;
	conductor_C OH_OPTICAL_FIBER_EARTHWIRE_77;
	conductor_N OH_OPTICAL_FIBER_EARTHWIRE_77;
	spacing line_Spacing_OH_HV;
};

object line_configuration {
	name conf_OHLine_404;
	conductor_A OH_BONDING_CABLE_6;
	conductor_B OH_BONDING_CABLE_6;
	conductor_C OH_BONDING_CABLE_6;
	conductor_N OH_BONDING_CABLE_6;
	spacing line_Spacing_ABC;
};

object line_configuration {
	name conf_OHLine_405;
	conductor_A OH_BONDING_CABLE_16;
	conductor_B OH_BONDING_CABLE_16;
	conductor_C OH_BONDING_CABLE_16;
	conductor_N OH_BONDING_CABLE_16;
	spacing line_Spacing_ABC;
};

object line_configuration {
	name conf_OHLine_406;
	conductor_A OH_BONDING_CABLE_25;
	conductor_B OH_BONDING_CABLE_25;
	conductor_C OH_BONDING_CABLE_25;
	conductor_N OH_BONDING_CABLE_25;
	spacing line_Spacing_ABC;
};

object line_configuration {
	name conf_OHLine_407;
	conductor_A OH_BONDING_CABLE_50;
	conductor_B OH_BONDING_CABLE_50;
	conductor_C OH_BONDING_CABLE_50;
	conductor_N OH_BONDING_CABLE_50;
	spacing line_Spacing_ABC;
};

object line_configuration {
	name conf_OHLine_422;
	conductor_A OH_415V_ABC_95;
	conductor_B OH_415V_ABC_95;
	conductor_C OH_415V_ABC_95;
	conductor_N OH_415V_ABC_95;
	spacing line_Spacing_ABC;
};

object line_configuration {
	name conf_OHLine_431;
	conductor_A OH_BARE_SYSTEM_331;
	conductor_B OH_BARE_SYSTEM_331;
	conductor_C OH_BARE_SYSTEM_331;
	conductor_N OH_BARE_SYSTEM_331;
	spacing line_Spacing_OH;
};

object line_configuration {
	name conf_OHLine_432;
	conductor_A OH_BARE_SYSTEM_77;
	conductor_B OH_BARE_SYSTEM_77;
	conductor_C OH_BARE_SYSTEM_77;
	conductor_N OH_BARE_SYSTEM_77;
	spacing line_Spacing_OH;
};

object line_configuration {
	name conf_OHLine_441;
	conductor_A OH_OPTICAL_FIBER_EARTHWIRE_77;
	conductor_B OH_OPTICAL_FIBER_EARTHWIRE_77;
	conductor_C OH_OPTICAL_FIBER_EARTHWIRE_77;
	conductor_N OH_OPTICAL_FIBER_EARTHWIRE_77;
	spacing line_Spacing_OH_HV;
};

object line_configuration {
	name conf_OHLine_448;
	conductor_A OH_11_33KV_COVERED_124;
	conductor_B OH_11_33KV_COVERED_124;
	conductor_C OH_11_33KV_COVERED_124;
	conductor_N OH_11_33KV_COVERED_124;
	spacing line_Spacing_OH_HV;
};

object line_configuration {
	name conf_OHLine_449;
	conductor_A OH_PILOT_CONTROL_SIGNAL_CABLE_10;
	conductor_B OH_PILOT_CONTROL_SIGNAL_CABLE_10;
	conductor_C OH_PILOT_CONTROL_SIGNAL_CABLE_10;
	conductor_N OH_PILOT_CONTROL_SIGNAL_CABLE_10;
	spacing line_Spacing_ABC;
};

object line_configuration {
	name conf_OHLine_451;
	conductor_A OH_PILOT_CONTROL_SIGNAL_CABLE_10;
	conductor_B OH_PILOT_CONTROL_SIGNAL_CABLE_10;
	conductor_C OH_PILOT_CONTROL_SIGNAL_CABLE_10;
	conductor_N OH_PILOT_CONTROL_SIGNAL_CABLE_10;
	spacing line_Spacing_ABC;
};

object line_configuration {
	name conf_OHLine_458;
	conductor_A OH_BARE_SYSTEM_129;
	conductor_B OH_BARE_SYSTEM_129;
	conductor_C OH_BARE_SYSTEM_129;
	conductor_N OH_BARE_SYSTEM_129;
	spacing line_Spacing_OH;
};

object line_configuration {
	name conf_OHLine_460;
	conductor_A OH_PILOT_CONTROL_SIGNAL_CABLE_9;
	conductor_B OH_PILOT_CONTROL_SIGNAL_CABLE_9;
	conductor_C OH_PILOT_CONTROL_SIGNAL_CABLE_9;
	conductor_N OH_PILOT_CONTROL_SIGNAL_CABLE_9;
	spacing line_Spacing_ABC;
};

object line_configuration {
	name conf_OHLine_461;
	conductor_A OH_PILOT_CONTROL_SIGNAL_CABLE_9;
	conductor_B OH_PILOT_CONTROL_SIGNAL_CABLE_9;
	conductor_C OH_PILOT_CONTROL_SIGNAL_CABLE_9;
	conductor_N OH_PILOT_CONTROL_SIGNAL_CABLE_9;
	spacing line_Spacing_ABC;
};

object line_configuration {
	name conf_OHLine_500;
	conductor_A OH_BUSBAR_9999;
	conductor_B OH_BUSBAR_9999;
	conductor_C OH_BUSBAR_9999;
	conductor_N OH_BUSBAR_9999;
	spacing line_Spacing_OH;
};

object line_configuration {
	name conf_OHLine_504;
	conductor_A OH_BARE_SYSTEM_129;
	conductor_B OH_BARE_SYSTEM_129;
	conductor_C OH_BARE_SYSTEM_129;
	conductor_N OH_BARE_SYSTEM_129;
	spacing line_Spacing_OH;
};

object line_configuration {
	name conf_OHLine_505;
	conductor_A OH_BARE_BUNDLED_408;
	conductor_B OH_BARE_BUNDLED_408;
	conductor_C OH_BARE_BUNDLED_408;
	conductor_N OH_BARE_BUNDLED_408;
	spacing line_Spacing_ABC;
};

object line_configuration {
	name conf_OHLine_506;
	conductor_A OH_BARE_SYSTEM_506;
	conductor_B OH_BARE_SYSTEM_506;
	conductor_C OH_BARE_SYSTEM_506;
	conductor_N OH_BARE_SYSTEM_506;
	spacing line_Spacing_OH;
};

object line_configuration {
	name conf_OHLine_543;
	conductor_A OH_BARE_SYSTEM_34;
	conductor_B OH_BARE_SYSTEM_34;
	conductor_C OH_BARE_SYSTEM_34;
	conductor_N OH_BARE_SYSTEM_34;
	spacing line_Spacing_OH;
};

object line_configuration {
	name conf_OHLine_549;
	conductor_A OH_BARE_SYSTEM_66;
	conductor_B OH_BARE_SYSTEM_66;
	conductor_C OH_BARE_SYSTEM_66;
	conductor_N OH_BARE_SYSTEM_66;
	spacing line_Spacing_OH;
};

object line_configuration {
	name conf_OHLine_563;
	conductor_A OH_PILOT_CONTROL_SIGNAL_CABLE_25;
	conductor_B OH_PILOT_CONTROL_SIGNAL_CABLE_25;
	conductor_C OH_PILOT_CONTROL_SIGNAL_CABLE_25;
	conductor_N OH_PILOT_CONTROL_SIGNAL_CABLE_25;
	spacing line_Spacing_ABC;
};

object line_configuration {
	name conf_OHLine_564;
	conductor_A OH_PILOT_CONTROL_SIGNAL_CABLE_9;
	conductor_B OH_PILOT_CONTROL_SIGNAL_CABLE_9;
	conductor_C OH_PILOT_CONTROL_SIGNAL_CABLE_9;
	conductor_N OH_PILOT_CONTROL_SIGNAL_CABLE_9;
	spacing line_Spacing_ABC;
};

object line_configuration {
	name conf_OHLine_565;
	conductor_A OH_PILOT_CONTROL_SIGNAL_CABLE_9;
	conductor_B OH_PILOT_CONTROL_SIGNAL_CABLE_9;
	conductor_C OH_PILOT_CONTROL_SIGNAL_CABLE_9;
	conductor_N OH_PILOT_CONTROL_SIGNAL_CABLE_9;
	spacing line_Spacing_ABC;
};

object line_configuration {
	name conf_OHLine_566;
	conductor_A OH_PILOT_CONTROL_SIGNAL_CABLE_9;
	conductor_B OH_PILOT_CONTROL_SIGNAL_CABLE_9;
	conductor_C OH_PILOT_CONTROL_SIGNAL_CABLE_9;
	conductor_N OH_PILOT_CONTROL_SIGNAL_CABLE_9;
	spacing line_Spacing_ABC;
};

object line_configuration {
	name conf_OHLine_567;
	conductor_A OH_PILOT_CONTROL_SIGNAL_CABLE_9;
	conductor_B OH_PILOT_CONTROL_SIGNAL_CABLE_9;
	conductor_C OH_PILOT_CONTROL_SIGNAL_CABLE_9;
	conductor_N OH_PILOT_CONTROL_SIGNAL_CABLE_9;
	spacing line_Spacing_ABC;
};

object line_configuration {
	name conf_OHLine_568;
	conductor_A OH_PILOT_CONTROL_SIGNAL_CABLE_9;
	conductor_B OH_PILOT_CONTROL_SIGNAL_CABLE_9;
	conductor_C OH_PILOT_CONTROL_SIGNAL_CABLE_9;
	conductor_N OH_PILOT_CONTROL_SIGNAL_CABLE_9;
	spacing line_Spacing_ABC;
};

object line_configuration {
	name conf_OHLine_591;
	conductor_A OH_BARE_SYSTEM_66;
	conductor_B OH_BARE_SYSTEM_66;
	conductor_C OH_BARE_SYSTEM_66;
	conductor_N OH_BARE_SYSTEM_66;
	spacing line_Spacing_OH;
};

object line_configuration {
	name conf_OHLine_598;
	conductor_A OH_BONDING_CABLE_185;
	conductor_B OH_BONDING_CABLE_185;
	conductor_C OH_BONDING_CABLE_185;
	conductor_N OH_BONDING_CABLE_185;
	spacing line_Spacing_ABC;
};

object line_configuration {
	name conf_OHLine_600;
	conductor_A OH_BARE_SYSTEM_506;
	conductor_B OH_BARE_SYSTEM_506;
	conductor_C OH_BARE_SYSTEM_506;
	conductor_N OH_BARE_SYSTEM_506;
	spacing line_Spacing_OH;
};

object line_configuration {
	name conf_OHLine_601;
	conductor_A OH_PILOT_CONTROL_SIGNAL_CABLE_9;
	conductor_B OH_PILOT_CONTROL_SIGNAL_CABLE_9;
	conductor_C OH_PILOT_CONTROL_SIGNAL_CABLE_9;
	conductor_N OH_PILOT_CONTROL_SIGNAL_CABLE_9;
	spacing line_Spacing_ABC;
};

object line_configuration {
	name conf_OHLine_602;
	conductor_A OH_BARE_SYSTEM_15;
	conductor_B OH_BARE_SYSTEM_15;
	conductor_C OH_BARE_SYSTEM_15;
	conductor_N OH_BARE_SYSTEM_15;
	spacing line_Spacing_OH;
};

object line_configuration {
	name conf_OHLine_603;
	conductor_A OH_BARE_SYSTEM_16;
	conductor_B OH_BARE_SYSTEM_16;
	conductor_C OH_BARE_SYSTEM_16;
	conductor_N OH_BARE_SYSTEM_16;
	spacing line_Spacing_OH;
};

object line_configuration {
	name conf_OHLine_604;
	conductor_A OH_BARE_SYSTEM_16;
	conductor_B OH_BARE_SYSTEM_16;
	conductor_C OH_BARE_SYSTEM_16;
	conductor_N OH_BARE_SYSTEM_16;
	spacing line_Spacing_OH;
};

object line_configuration {
	name conf_OHLine_605;
	conductor_A OH_BARE_SYSTEM_15;
	conductor_B OH_BARE_SYSTEM_15;
	conductor_C OH_BARE_SYSTEM_15;
	conductor_N OH_BARE_SYSTEM_15;
	spacing line_Spacing_OH;
};

object line_configuration {
	name conf_OHLine_606;
	conductor_A OH_11KV_ABC_15;
	conductor_B OH_11KV_ABC_15;
	conductor_C OH_11KV_ABC_15;
	conductor_N OH_11KV_ABC_15;
	spacing line_Spacing_ABC;
};

object line_configuration {
	name conf_OHLine_607;
	conductor_A OH_BARE_SYSTEM_22;
	conductor_B OH_BARE_SYSTEM_22;
	conductor_C OH_BARE_SYSTEM_22;
	conductor_N OH_BARE_SYSTEM_22;
	spacing line_Spacing_OH;
};

object line_configuration {
	name conf_OHLine_608;
	conductor_A OH_BARE_SYSTEM_15;
	conductor_B OH_BARE_SYSTEM_15;
	conductor_C OH_BARE_SYSTEM_15;
	conductor_N OH_BARE_SYSTEM_15;
	spacing line_Spacing_OH;
};

object line_configuration {
	name conf_OHLine_609;
	conductor_A OH_BARE_SYSTEM_15;
	conductor_B OH_BARE_SYSTEM_15;
	conductor_C OH_BARE_SYSTEM_15;
	conductor_N OH_BARE_SYSTEM_15;
	spacing line_Spacing_OH;
};

object line_configuration {
	name conf_OHLine_610;
	conductor_A OH_BARE_SYSTEM_15;
	conductor_B OH_BARE_SYSTEM_15;
	conductor_C OH_BARE_SYSTEM_15;
	conductor_N OH_BARE_SYSTEM_15;
	spacing line_Spacing_OH;
};

object line_configuration {
	name conf_OHLine_611;
	conductor_A OH_BARE_SYSTEM_15;
	conductor_B OH_BARE_SYSTEM_15;
	conductor_C OH_BARE_SYSTEM_15;
	conductor_N OH_BARE_SYSTEM_15;
	spacing line_Spacing_OH;
};

object line_configuration {
	name conf_OHLine_612;
	conductor_A OH_11KV_ABC_24;
	conductor_B OH_11KV_ABC_24;
	conductor_C OH_11KV_ABC_24;
	conductor_N OH_11KV_ABC_24;
	spacing line_Spacing_ABC;
};

object line_configuration {
	name conf_OHLine_613;
	conductor_A OH_BARE_SYSTEM_50;
	conductor_B OH_BARE_SYSTEM_50;
	conductor_C OH_BARE_SYSTEM_50;
	conductor_N OH_BARE_SYSTEM_50;
	spacing line_Spacing_OH;
};

object line_configuration {
	name conf_OHLine_614;
	conductor_A OH_MISC_COVERED_27;
	conductor_B OH_MISC_COVERED_27;
	conductor_C OH_MISC_COVERED_27;
	conductor_N OH_MISC_COVERED_27;
	spacing line_Spacing_OH;
};

object line_configuration {
	name conf_OHLine_615;
	conductor_A OH_BARE_SYSTEM_39;
	conductor_B OH_BARE_SYSTEM_39;
	conductor_C OH_BARE_SYSTEM_39;
	conductor_N OH_BARE_SYSTEM_39;
	spacing line_Spacing_OH;
};

object line_configuration {
	name conf_OHLine_616;
	conductor_A OH_PILOT_CONTROL_SIGNAL_CABLE_9;
	conductor_B OH_PILOT_CONTROL_SIGNAL_CABLE_9;
	conductor_C OH_PILOT_CONTROL_SIGNAL_CABLE_9;
	conductor_N OH_PILOT_CONTROL_SIGNAL_CABLE_9;
	spacing line_Spacing_ABC;
};

object line_configuration {
	name conf_OHLine_617;
	conductor_A OH_BARE_SYSTEM_30;
	conductor_B OH_BARE_SYSTEM_30;
	conductor_C OH_BARE_SYSTEM_30;
	conductor_N OH_BARE_SYSTEM_30;
	spacing line_Spacing_OH;
};

object line_configuration {
	name conf_OHLine_618;
	conductor_A OH_11KV_ABC_24;
	conductor_B OH_11KV_ABC_24;
	conductor_C OH_11KV_ABC_24;
	conductor_N OH_11KV_ABC_24;
	spacing line_Spacing_ABC;
};

object line_configuration {
	name conf_OHLine_619;
	conductor_A OH_BARE_SYSTEM_37;
	conductor_B OH_BARE_SYSTEM_37;
	conductor_C OH_BARE_SYSTEM_37;
	conductor_N OH_BARE_SYSTEM_37;
	spacing line_Spacing_OH;
};

object line_configuration {
	name conf_OHLine_620;
	conductor_A OH_BARE_SYSTEM_25;
	conductor_B OH_BARE_SYSTEM_25;
	conductor_C OH_BARE_SYSTEM_25;
	conductor_N OH_BARE_SYSTEM_25;
	spacing line_Spacing_OH;
};

object line_configuration {
	name conf_OHLine_621;
	conductor_A OH_BARE_SYSTEM_39;
	conductor_B OH_BARE_SYSTEM_39;
	conductor_C OH_BARE_SYSTEM_39;
	conductor_N OH_BARE_SYSTEM_39;
	spacing line_Spacing_OH;
};

object line_configuration {
	name conf_OHLine_622;
	conductor_A OH_BARE_SYSTEM_51;
	conductor_B OH_BARE_SYSTEM_51;
	conductor_C OH_BARE_SYSTEM_51;
	conductor_N OH_BARE_SYSTEM_51;
	spacing line_Spacing_OH;
};

object line_configuration {
	name conf_OHLine_623;
	conductor_A OH_BARE_SYSTEM_25;
	conductor_B OH_BARE_SYSTEM_25;
	conductor_C OH_BARE_SYSTEM_25;
	conductor_N OH_BARE_SYSTEM_25;
	spacing line_Spacing_OH;
};

object line_configuration {
	name conf_OHLine_624;
	conductor_A OH_BARE_SYSTEM_107;
	conductor_B OH_BARE_SYSTEM_107;
	conductor_C OH_BARE_SYSTEM_107;
	conductor_N OH_BARE_SYSTEM_107;
	spacing line_Spacing_OH;
};

object line_configuration {
	name conf_OHLine_625;
	conductor_A OH_BARE_SYSTEM_23;
	conductor_B OH_BARE_SYSTEM_23;
	conductor_C OH_BARE_SYSTEM_23;
	conductor_N OH_BARE_SYSTEM_23;
	spacing line_Spacing_OH;
};

object line_configuration {
	name conf_OHLine_626;
	conductor_A OH_BARE_SYSTEM_25;
	conductor_B OH_BARE_SYSTEM_25;
	conductor_C OH_BARE_SYSTEM_25;
	conductor_N OH_BARE_SYSTEM_25;
	spacing line_Spacing_OH;
};

object line_configuration {
	name conf_OHLine_627;
	conductor_A OH_BARE_SYSTEM_22;
	conductor_B OH_BARE_SYSTEM_22;
	conductor_C OH_BARE_SYSTEM_22;
	conductor_N OH_BARE_SYSTEM_22;
	spacing line_Spacing_OH;
};

object line_configuration {
	name conf_OHLine_628;
	conductor_A OH_BARE_SYSTEM_19;
	conductor_B OH_BARE_SYSTEM_19;
	conductor_C OH_BARE_SYSTEM_19;
	conductor_N OH_BARE_SYSTEM_19;
	spacing line_Spacing_OH;
};

object line_configuration {
	name conf_OHLine_629;
	conductor_A OH_BARE_SYSTEM_27;
	conductor_B OH_BARE_SYSTEM_27;
	conductor_C OH_BARE_SYSTEM_27;
	conductor_N OH_BARE_SYSTEM_27;
	spacing line_Spacing_OH;
};

object line_configuration {
	name conf_OHLine_630;
	conductor_A OH_BARE_SYSTEM_25;
	conductor_B OH_BARE_SYSTEM_25;
	conductor_C OH_BARE_SYSTEM_25;
	conductor_N OH_BARE_SYSTEM_25;
	spacing line_Spacing_OH;
};

object line_configuration {
	name conf_OHLine_631;
	conductor_A OH_BARE_SYSTEM_64;
	conductor_B OH_BARE_SYSTEM_64;
	conductor_C OH_BARE_SYSTEM_64;
	conductor_N OH_BARE_SYSTEM_64;
	spacing line_Spacing_OH;
};

object line_configuration {
	name conf_OHLine_632;
	conductor_A OH_BARE_SYSTEM_49;
	conductor_B OH_BARE_SYSTEM_49;
	conductor_C OH_BARE_SYSTEM_49;
	conductor_N OH_BARE_SYSTEM_49;
	spacing line_Spacing_OH;
};

object line_configuration {
	name conf_OHLine_633;
	conductor_A OH_BARE_SYSTEM_50;
	conductor_B OH_BARE_SYSTEM_50;
	conductor_C OH_BARE_SYSTEM_50;
	conductor_N OH_BARE_SYSTEM_50;
	spacing line_Spacing_OH;
};

object line_configuration {
	name conf_OHLine_634;
	conductor_A OH_BARE_SYSTEM_66;
	conductor_B OH_BARE_SYSTEM_66;
	conductor_C OH_BARE_SYSTEM_66;
	conductor_N OH_BARE_SYSTEM_66;
	spacing line_Spacing_OH;
};

object line_configuration {
	name conf_OHLine_635;
	conductor_A OH_BARE_SYSTEM_67;
	conductor_B OH_BARE_SYSTEM_67;
	conductor_C OH_BARE_SYSTEM_67;
	conductor_N OH_BARE_SYSTEM_67;
	spacing line_Spacing_OH;
};

object line_configuration {
	name conf_OHLine_636;
	conductor_A OH_BARE_SYSTEM_60;
	conductor_B OH_BARE_SYSTEM_60;
	conductor_C OH_BARE_SYSTEM_60;
	conductor_N OH_BARE_SYSTEM_60;
	spacing line_Spacing_OH;
};

object line_configuration {
	name conf_OHLine_637;
	conductor_A OH_BARE_SYSTEM_49;
	conductor_B OH_BARE_SYSTEM_49;
	conductor_C OH_BARE_SYSTEM_49;
	conductor_N OH_BARE_SYSTEM_49;
	spacing line_Spacing_OH;
};

object line_configuration {
	name conf_OHLine_638;
	conductor_A OH_BARE_SYSTEM_100;
	conductor_B OH_BARE_SYSTEM_100;
	conductor_C OH_BARE_SYSTEM_100;
	conductor_N OH_BARE_SYSTEM_100;
	spacing line_Spacing_OH;
};

object line_configuration {
	name conf_OHLine_639;
	conductor_A OH_BARE_SYSTEM_25;
	conductor_B OH_BARE_SYSTEM_25;
	conductor_C OH_BARE_SYSTEM_25;
	conductor_N OH_BARE_SYSTEM_25;
	spacing line_Spacing_OH;
};

object line_configuration {
	name conf_OHLine_640;
	conductor_A OH_BARE_SYSTEM_68;
	conductor_B OH_BARE_SYSTEM_68;
	conductor_C OH_BARE_SYSTEM_68;
	conductor_N OH_BARE_SYSTEM_68;
	spacing line_Spacing_OH;
};

object line_configuration {
	name conf_OHLine_641;
	conductor_A OH_BARE_SYSTEM_39;
	conductor_B OH_BARE_SYSTEM_39;
	conductor_C OH_BARE_SYSTEM_39;
	conductor_N OH_BARE_SYSTEM_39;
	spacing line_Spacing_OH;
};

object line_configuration {
	name conf_OHLine_642;
	conductor_A OH_BARE_SYSTEM_46;
	conductor_B OH_BARE_SYSTEM_46;
	conductor_C OH_BARE_SYSTEM_46;
	conductor_N OH_BARE_SYSTEM_46;
	spacing line_Spacing_OH;
};

object line_configuration {
	name conf_OHLine_643;
	conductor_A OH_BARE_BUNDLED_66;
	conductor_B OH_BARE_BUNDLED_66;
	conductor_C OH_BARE_BUNDLED_66;
	conductor_N OH_BARE_BUNDLED_66;
	spacing line_Spacing_ABC;
};

object line_configuration {
	name conf_OHLine_644;
	conductor_A OH_BARE_SYSTEM_37;
	conductor_B OH_BARE_SYSTEM_37;
	conductor_C OH_BARE_SYSTEM_37;
	conductor_N OH_BARE_SYSTEM_37;
	spacing line_Spacing_OH;
};

object line_configuration {
	name conf_OHLine_645;
	conductor_A OH_BARE_SYSTEM_37;
	conductor_B OH_BARE_SYSTEM_37;
	conductor_C OH_BARE_SYSTEM_37;
	conductor_N OH_BARE_SYSTEM_37;
	spacing line_Spacing_OH;
};

object line_configuration {
	name conf_OHLine_646;
	conductor_A OH_BARE_SYSTEM_38;
	conductor_B OH_BARE_SYSTEM_38;
	conductor_C OH_BARE_SYSTEM_38;
	conductor_N OH_BARE_SYSTEM_38;
	spacing line_Spacing_OH;
};

object line_configuration {
	name conf_OHLine_647;
	conductor_A OH_BARE_SYSTEM_18;
	conductor_B OH_BARE_SYSTEM_18;
	conductor_C OH_BARE_SYSTEM_18;
	conductor_N OH_BARE_SYSTEM_18;
	spacing line_Spacing_OH;
};

object line_configuration {
	name conf_OHLine_648;
	conductor_A OH_BARE_SYSTEM_22;
	conductor_B OH_BARE_SYSTEM_22;
	conductor_C OH_BARE_SYSTEM_22;
	conductor_N OH_BARE_SYSTEM_22;
	spacing line_Spacing_OH;
};

object line_configuration {
	name conf_OHLine_649;
	conductor_A OH_BARE_SYSTEM_36;
	conductor_B OH_BARE_SYSTEM_36;
	conductor_C OH_BARE_SYSTEM_36;
	conductor_N OH_BARE_SYSTEM_36;
	spacing line_Spacing_OH;
};

object line_configuration {
	name conf_OHLine_650;
	conductor_A OH_BARE_SYSTEM_100;
	conductor_B OH_BARE_SYSTEM_100;
	conductor_C OH_BARE_SYSTEM_100;
	conductor_N OH_BARE_SYSTEM_100;
	spacing line_Spacing_OH;
};

object line_configuration {
	name conf_OHLine_651;
	conductor_A OH_BARE_SYSTEM_100;
	conductor_B OH_BARE_SYSTEM_100;
	conductor_C OH_BARE_SYSTEM_100;
	conductor_N OH_BARE_SYSTEM_100;
	spacing line_Spacing_OH;
};

object line_configuration {
	name conf_OHLine_652;
	conductor_A OH_BARE_SYSTEM_22;
	conductor_B OH_BARE_SYSTEM_22;
	conductor_C OH_BARE_SYSTEM_22;
	conductor_N OH_BARE_SYSTEM_22;
	spacing line_Spacing_OH;
};

object line_configuration {
	name conf_OHLine_653;
	conductor_A OH_BARE_SYSTEM_42;
	conductor_B OH_BARE_SYSTEM_42;
	conductor_C OH_BARE_SYSTEM_42;
	conductor_N OH_BARE_SYSTEM_42;
	spacing line_Spacing_OH;
};

object line_configuration {
	name conf_OHLine_654;
	conductor_A OH_BARE_SYSTEM_49;
	conductor_B OH_BARE_SYSTEM_49;
	conductor_C OH_BARE_SYSTEM_49;
	conductor_N OH_BARE_SYSTEM_49;
	spacing line_Spacing_OH;
};

object line_configuration {
	name conf_OHLine_655;
	conductor_A OH_BARE_SYSTEM_129;
	conductor_B OH_BARE_SYSTEM_129;
	conductor_C OH_BARE_SYSTEM_129;
	conductor_N OH_BARE_SYSTEM_129;
	spacing line_Spacing_OH;
};

object line_configuration {
	name conf_OHLine_656;
	conductor_A OH_BARE_SYSTEM_49;
	conductor_B OH_BARE_SYSTEM_49;
	conductor_C OH_BARE_SYSTEM_49;
	conductor_N OH_BARE_SYSTEM_49;
	spacing line_Spacing_OH;
};

object line_configuration {
	name conf_OHLine_657;
	conductor_A OH_BARE_SYSTEM_124;
	conductor_B OH_BARE_SYSTEM_124;
	conductor_C OH_BARE_SYSTEM_124;
	conductor_N OH_BARE_SYSTEM_124;
	spacing line_Spacing_OH;
};

object line_configuration {
	name conf_OHLine_658;
	conductor_A OH_BARE_SYSTEM_210;
	conductor_B OH_BARE_SYSTEM_210;
	conductor_C OH_BARE_SYSTEM_210;
	conductor_N OH_BARE_SYSTEM_210;
	spacing line_Spacing_OH;
};

object line_configuration {
	name conf_OHLine_659;
	conductor_A OH_BARE_SYSTEM_33;
	conductor_B OH_BARE_SYSTEM_33;
	conductor_C OH_BARE_SYSTEM_33;
	conductor_N OH_BARE_SYSTEM_33;
	spacing line_Spacing_OH;
};

object line_configuration {
	name conf_OHLine_660;
	conductor_A OH_BARE_SYSTEM_58;
	conductor_B OH_BARE_SYSTEM_58;
	conductor_C OH_BARE_SYSTEM_58;
	conductor_N OH_BARE_SYSTEM_58;
	spacing line_Spacing_OH;
};

object line_configuration {
	name conf_OHLine_661;
	conductor_A OH_BARE_SYSTEM_15;
	conductor_B OH_BARE_SYSTEM_15;
	conductor_C OH_BARE_SYSTEM_15;
	conductor_N OH_BARE_SYSTEM_15;
	spacing line_Spacing_OH;
};

object line_configuration {
	name conf_OHLine_662;
	conductor_A OH_BARE_SYSTEM_66;
	conductor_B OH_BARE_SYSTEM_66;
	conductor_C OH_BARE_SYSTEM_66;
	conductor_N OH_BARE_SYSTEM_66;
	spacing line_Spacing_OH;
};

object line_configuration {
	name conf_OHLine_663;
	conductor_A OH_BARE_SYSTEM_64;
	conductor_B OH_BARE_SYSTEM_64;
	conductor_C OH_BARE_SYSTEM_64;
	conductor_N OH_BARE_SYSTEM_64;
	spacing line_Spacing_OH;
};

object line_configuration {
	name conf_OHLine_664;
	conductor_A OH_BARE_SYSTEM_67;
	conductor_B OH_BARE_SYSTEM_67;
	conductor_C OH_BARE_SYSTEM_67;
	conductor_N OH_BARE_SYSTEM_67;
	spacing line_Spacing_OH;
};

object line_configuration {
	name conf_OHLine_665;
	conductor_A OH_BARE_SYSTEM_158;
	conductor_B OH_BARE_SYSTEM_158;
	conductor_C OH_BARE_SYSTEM_158;
	conductor_N OH_BARE_SYSTEM_158;
	spacing line_Spacing_OH;
};

object line_configuration {
	name conf_OHLine_666;
	conductor_A OH_BARE_SYSTEM_217;
	conductor_B OH_BARE_SYSTEM_217;
	conductor_C OH_BARE_SYSTEM_217;
	conductor_N OH_BARE_SYSTEM_217;
	spacing line_Spacing_OH;
};

object line_configuration {
	name conf_OHLine_667;
	conductor_A OH_BARE_SYSTEM_58;
	conductor_B OH_BARE_SYSTEM_58;
	conductor_C OH_BARE_SYSTEM_58;
	conductor_N OH_BARE_SYSTEM_58;
	spacing line_Spacing_OH;
};

object line_configuration {
	name conf_OHLine_668;
	conductor_A OH_BARE_SYSTEM_77;
	conductor_B OH_BARE_SYSTEM_77;
	conductor_C OH_BARE_SYSTEM_77;
	conductor_N OH_BARE_SYSTEM_77;
	spacing line_Spacing_OH;
};

object line_configuration {
	name conf_OHLine_669;
	conductor_A OH_BARE_SYSTEM_77;
	conductor_B OH_BARE_SYSTEM_77;
	conductor_C OH_BARE_SYSTEM_77;
	conductor_N OH_BARE_SYSTEM_77;
	spacing line_Spacing_OH;
};

object line_configuration {
	name conf_OHLine_670;
	conductor_A OH_BARE_SYSTEM_107;
	conductor_B OH_BARE_SYSTEM_107;
	conductor_C OH_BARE_SYSTEM_107;
	conductor_N OH_BARE_SYSTEM_107;
	spacing line_Spacing_OH;
};

object line_configuration {
	name conf_OHLine_671;
	conductor_A OH_BARE_SYSTEM_105;
	conductor_B OH_BARE_SYSTEM_105;
	conductor_C OH_BARE_SYSTEM_105;
	conductor_N OH_BARE_SYSTEM_105;
	spacing line_Spacing_OH;
};

object line_configuration {
	name conf_OHLine_672;
	conductor_A OH_BARE_SYSTEM_111;
	conductor_B OH_BARE_SYSTEM_111;
	conductor_C OH_BARE_SYSTEM_111;
	conductor_N OH_BARE_SYSTEM_111;
	spacing line_Spacing_OH;
};

object line_configuration {
	name conf_OHLine_673;
	conductor_A OH_BARE_SYSTEM_157;
	conductor_B OH_BARE_SYSTEM_157;
	conductor_C OH_BARE_SYSTEM_157;
	conductor_N OH_BARE_SYSTEM_157;
	spacing line_Spacing_OH;
};

object line_configuration {
	name conf_OHLine_674;
	conductor_A OH_BARE_SYSTEM_111;
	conductor_B OH_BARE_SYSTEM_111;
	conductor_C OH_BARE_SYSTEM_111;
	conductor_N OH_BARE_SYSTEM_111;
	spacing line_Spacing_OH;
};

object line_configuration {
	name conf_OHLine_675;
	conductor_A OH_BARE_SYSTEM_39;
	conductor_B OH_BARE_SYSTEM_39;
	conductor_C OH_BARE_SYSTEM_39;
	conductor_N OH_BARE_SYSTEM_39;
	spacing line_Spacing_OH;
};

object line_configuration {
	name conf_OHLine_676;
	conductor_A OH_BARE_SYSTEM_38;
	conductor_B OH_BARE_SYSTEM_38;
	conductor_C OH_BARE_SYSTEM_38;
	conductor_N OH_BARE_SYSTEM_38;
	spacing line_Spacing_OH;
};

object line_configuration {
	name conf_OHLine_677;
	conductor_A OH_BARE_SYSTEM_58;
	conductor_B OH_BARE_SYSTEM_58;
	conductor_C OH_BARE_SYSTEM_58;
	conductor_N OH_BARE_SYSTEM_58;
	spacing line_Spacing_OH;
};

object line_configuration {
	name conf_OHLine_678;
	conductor_A OH_BARE_SYSTEM_129;
	conductor_B OH_BARE_SYSTEM_129;
	conductor_C OH_BARE_SYSTEM_129;
	conductor_N OH_BARE_SYSTEM_129;
	spacing line_Spacing_OH;
};

object line_configuration {
	name conf_OHLine_679;
	conductor_A OH_BARE_SYSTEM_42;
	conductor_B OH_BARE_SYSTEM_42;
	conductor_C OH_BARE_SYSTEM_42;
	conductor_N OH_BARE_SYSTEM_42;
	spacing line_Spacing_OH;
};

object line_configuration {
	name conf_OHLine_680;
	conductor_A OH_BARE_SYSTEM_66;
	conductor_B OH_BARE_SYSTEM_66;
	conductor_C OH_BARE_SYSTEM_66;
	conductor_N OH_BARE_SYSTEM_66;
	spacing line_Spacing_OH;
};

object line_configuration {
	name conf_OHLine_681;
	conductor_A OH_BARE_BUNDLED_68;
	conductor_B OH_BARE_BUNDLED_68;
	conductor_C OH_BARE_BUNDLED_68;
	conductor_N OH_BARE_BUNDLED_68;
	spacing line_Spacing_ABC;
};

object line_configuration {
	name conf_OHLine_682;
	conductor_A OH_BARE_BUNDLED_60;
	conductor_B OH_BARE_BUNDLED_60;
	conductor_C OH_BARE_BUNDLED_60;
	conductor_N OH_BARE_BUNDLED_60;
	spacing line_Spacing_ABC;
};

object line_configuration {
	name conf_OHLine_683;
	conductor_A OH_BARE_BUNDLED_111;
	conductor_B OH_BARE_BUNDLED_111;
	conductor_C OH_BARE_BUNDLED_111;
	conductor_N OH_BARE_BUNDLED_111;
	spacing line_Spacing_ABC;
};

object line_configuration {
	name conf_OHLine_684;
	conductor_A OH_BARE_SYSTEM_220;
	conductor_B OH_BARE_SYSTEM_220;
	conductor_C OH_BARE_SYSTEM_220;
	conductor_N OH_BARE_SYSTEM_220;
	spacing line_Spacing_OH;
};

object line_configuration {
	name conf_OHLine_685;
	conductor_A OH_BARE_BUNDLED_100;
	conductor_B OH_BARE_BUNDLED_100;
	conductor_C OH_BARE_BUNDLED_100;
	conductor_N OH_BARE_BUNDLED_100;
	spacing line_Spacing_ABC;
};

object line_configuration {
	name conf_OHLine_686;
	conductor_A OH_PILOT_CONTROL_SIGNAL_CABLE_9;
	conductor_B OH_PILOT_CONTROL_SIGNAL_CABLE_9;
	conductor_C OH_PILOT_CONTROL_SIGNAL_CABLE_9;
	conductor_N OH_PILOT_CONTROL_SIGNAL_CABLE_9;
	spacing line_Spacing_ABC;
};

object line_configuration {
	name conf_OHLine_687;
	conductor_A OH_BARE_SYSTEM_369;
	conductor_B OH_BARE_SYSTEM_369;
	conductor_C OH_BARE_SYSTEM_369;
	conductor_N OH_BARE_SYSTEM_369;
	spacing line_Spacing_OH;
};

object line_configuration {
	name conf_OHLine_688;
	conductor_A OH_PILOT_CONTROL_SIGNAL_CABLE_0;
	conductor_B OH_PILOT_CONTROL_SIGNAL_CABLE_0;
	conductor_C OH_PILOT_CONTROL_SIGNAL_CABLE_0;
	conductor_N OH_PILOT_CONTROL_SIGNAL_CABLE_0;
	spacing line_Spacing_ABC;
};

object line_configuration {
	name conf_OHLine_689;
	conductor_A OH_PILOT_CONTROL_SIGNAL_CABLE_9;
	conductor_B OH_PILOT_CONTROL_SIGNAL_CABLE_9;
	conductor_C OH_PILOT_CONTROL_SIGNAL_CABLE_9;
	conductor_N OH_PILOT_CONTROL_SIGNAL_CABLE_9;
	spacing line_Spacing_ABC;
};

object line_configuration {
	name conf_OHLine_690;
	conductor_A OH_BARE_SYSTEM_100;
	conductor_B OH_BARE_SYSTEM_100;
	conductor_C OH_BARE_SYSTEM_100;
	conductor_N OH_BARE_SYSTEM_100;
	spacing line_Spacing_OH;
};

object line_configuration {
	name conf_OHLine_691;
	conductor_A OH_BARE_SYSTEM_132;
	conductor_B OH_BARE_SYSTEM_132;
	conductor_C OH_BARE_SYSTEM_132;
	conductor_N OH_BARE_SYSTEM_132;
	spacing line_Spacing_OH;
};

object line_configuration {
	name conf_OHLine_692;
	conductor_A OH_PILOT_CONTROL_SIGNAL_CABLE_9;
	conductor_B OH_PILOT_CONTROL_SIGNAL_CABLE_9;
	conductor_C OH_PILOT_CONTROL_SIGNAL_CABLE_9;
	conductor_N OH_PILOT_CONTROL_SIGNAL_CABLE_9;
	spacing line_Spacing_ABC;
};

object line_configuration {
	name conf_OHLine_695;
	conductor_A OH_BARE_BUNDLED_107;
	conductor_B OH_BARE_BUNDLED_107;
	conductor_C OH_BARE_BUNDLED_107;
	conductor_N OH_BARE_BUNDLED_107;
	spacing line_Spacing_ABC;
};

object line_configuration {
	name conf_OHLine_698;
	conductor_A OH_BARE_SYSTEM_158;
	conductor_B OH_BARE_SYSTEM_158;
	conductor_C OH_BARE_SYSTEM_158;
	conductor_N OH_BARE_SYSTEM_158;
	spacing line_Spacing_OH;
};

object line_configuration {
	name conf_OHLine_699;
	conductor_A OH_BARE_SYSTEM_210;
	conductor_B OH_BARE_SYSTEM_210;
	conductor_C OH_BARE_SYSTEM_210;
	conductor_N OH_BARE_SYSTEM_210;
	spacing line_Spacing_OH;
};

object line_configuration {
	name conf_OHLine_700;
	conductor_A OH_BARE_SYSTEM_158;
	conductor_B OH_BARE_SYSTEM_158;
	conductor_C OH_BARE_SYSTEM_158;
	conductor_N OH_BARE_SYSTEM_158;
	spacing line_Spacing_OH;
};

object line_configuration {
	name conf_OHLine_701;
	conductor_A OH_BARE_SYSTEM_235;
	conductor_B OH_BARE_SYSTEM_235;
	conductor_C OH_BARE_SYSTEM_235;
	conductor_N OH_BARE_SYSTEM_235;
	spacing line_Spacing_OH;
};

object line_configuration {
	name conf_OHLine_702;
	conductor_A OH_BARE_SYSTEM_181;
	conductor_B OH_BARE_SYSTEM_181;
	conductor_C OH_BARE_SYSTEM_181;
	conductor_N OH_BARE_SYSTEM_181;
	spacing line_Spacing_OH;
};

object line_configuration {
	name conf_OHLine_705;
	conductor_A OH_BARE_BUNDLED_158;
	conductor_B OH_BARE_BUNDLED_158;
	conductor_C OH_BARE_BUNDLED_158;
	conductor_N OH_BARE_BUNDLED_158;
	spacing line_Spacing_ABC;
};

object line_configuration {
	name conf_OHLine_706;
	conductor_A OH_BARE_BUNDLED_158;
	conductor_B OH_BARE_BUNDLED_158;
	conductor_C OH_BARE_BUNDLED_158;
	conductor_N OH_BARE_BUNDLED_158;
	spacing line_Spacing_ABC;
};

object line_configuration {
	name conf_OHLine_707;
	conductor_A OH_BARE_SYSTEM_324;
	conductor_B OH_BARE_SYSTEM_324;
	conductor_C OH_BARE_SYSTEM_324;
	conductor_N OH_BARE_SYSTEM_324;
	spacing line_Spacing_OH;
};

object line_configuration {
	name conf_OHLine_708;
	conductor_A OH_BARE_SYSTEM_124;
	conductor_B OH_BARE_SYSTEM_124;
	conductor_C OH_BARE_SYSTEM_124;
	conductor_N OH_BARE_SYSTEM_124;
	spacing line_Spacing_OH;
};

object line_configuration {
	name conf_OHLine_709;
	conductor_A OH_BARE_SYSTEM_111;
	conductor_B OH_BARE_SYSTEM_111;
	conductor_C OH_BARE_SYSTEM_111;
	conductor_N OH_BARE_SYSTEM_111;
	spacing line_Spacing_OH;
};

object line_configuration {
	name conf_OHLine_710;
	conductor_A OH_BARE_SYSTEM_106;
	conductor_B OH_BARE_SYSTEM_106;
	conductor_C OH_BARE_SYSTEM_106;
	conductor_N OH_BARE_SYSTEM_106;
	spacing line_Spacing_OH;
};

object line_configuration {
	name conf_OHLine_711;
	conductor_A OH_BARE_SYSTEM_448;
	conductor_B OH_BARE_SYSTEM_448;
	conductor_C OH_BARE_SYSTEM_448;
	conductor_N OH_BARE_SYSTEM_448;
	spacing line_Spacing_OH;
};

object line_configuration {
	name conf_OHLine_712;
	conductor_A OH_BARE_SYSTEM_215;
	conductor_B OH_BARE_SYSTEM_215;
	conductor_C OH_BARE_SYSTEM_215;
	conductor_N OH_BARE_SYSTEM_215;
	spacing line_Spacing_OH;
};

object line_configuration {
	name conf_OHLine_713;
	conductor_A OH_BARE_SYSTEM_506;
	conductor_B OH_BARE_SYSTEM_506;
	conductor_C OH_BARE_SYSTEM_506;
	conductor_N OH_BARE_SYSTEM_506;
	spacing line_Spacing_OH;
};

object line_configuration {
	name conf_OHLine_714;
	conductor_A OH_BARE_SYSTEM_337;
	conductor_B OH_BARE_SYSTEM_337;
	conductor_C OH_BARE_SYSTEM_337;
	conductor_N OH_BARE_SYSTEM_337;
	spacing line_Spacing_OH;
};

object line_configuration {
	name conf_OHLine_715;
	conductor_A OH_BARE_SYSTEM_68;
	conductor_B OH_BARE_SYSTEM_68;
	conductor_C OH_BARE_SYSTEM_68;
	conductor_N OH_BARE_SYSTEM_68;
	spacing line_Spacing_OH;
};

object line_configuration {
	name conf_OHLine_720;
	conductor_A OH_BARE_BUNDLED_68;
	conductor_B OH_BARE_BUNDLED_68;
	conductor_C OH_BARE_BUNDLED_68;
	conductor_N OH_BARE_BUNDLED_68;
	spacing line_Spacing_ABC;
};

object line_configuration {
	name conf_OHLine_721;
	conductor_A OH_BARE_PERM_LINE_COVERS_66;
	conductor_B OH_BARE_PERM_LINE_COVERS_66;
	conductor_C OH_BARE_PERM_LINE_COVERS_66;
	conductor_N OH_BARE_PERM_LINE_COVERS_66;
	spacing line_Spacing_ABC;
};

object line_configuration {
	name conf_OHLine_722;
	conductor_A OH_BARE_PERM_LINE_COVERS_110;
	conductor_B OH_BARE_PERM_LINE_COVERS_110;
	conductor_C OH_BARE_PERM_LINE_COVERS_110;
	conductor_N OH_BARE_PERM_LINE_COVERS_110;
	spacing line_Spacing_ABC;
};

object line_configuration {
	name conf_OHLine_725;
	conductor_A OH_BARE_SYSTEM_100;
	conductor_B OH_BARE_SYSTEM_100;
	conductor_C OH_BARE_SYSTEM_100;
	conductor_N OH_BARE_SYSTEM_100;
	spacing line_Spacing_OH;
};

object line_configuration {
	name conf_OHLine_726;
	conductor_A OH_BARE_SYSTEM_337;
	conductor_B OH_BARE_SYSTEM_337;
	conductor_C OH_BARE_SYSTEM_337;
	conductor_N OH_BARE_SYSTEM_337;
	spacing line_Spacing_OH;
};

object line_configuration {
	name conf_OHLine_727;
	conductor_A OH_BARE_SYSTEM_217;
	conductor_B OH_BARE_SYSTEM_217;
	conductor_C OH_BARE_SYSTEM_217;
	conductor_N OH_BARE_SYSTEM_217;
	spacing line_Spacing_OH;
};

object line_configuration {
	name conf_OHLine_728;
	conductor_A OH_BARE_SYSTEM_506;
	conductor_B OH_BARE_SYSTEM_506;
	conductor_C OH_BARE_SYSTEM_506;
	conductor_N OH_BARE_SYSTEM_506;
	spacing line_Spacing_OH;
};

object line_configuration {
	name conf_OHLine_730;
	conductor_A OH_BARE_SYSTEM_409;
	conductor_B OH_BARE_SYSTEM_409;
	conductor_C OH_BARE_SYSTEM_409;
	conductor_N OH_BARE_SYSTEM_409;
	spacing line_Spacing_OH;
};

object line_configuration {
	name conf_OHLine_735;
	conductor_A OH_BARE_SYSTEM_176;
	conductor_B OH_BARE_SYSTEM_176;
	conductor_C OH_BARE_SYSTEM_176;
	conductor_N OH_BARE_SYSTEM_176;
	spacing line_Spacing_OH;
};

object line_configuration {
	name conf_OHLine_748;
	conductor_A OH_BARE_SYSTEM_382;
	conductor_B OH_BARE_SYSTEM_382;
	conductor_C OH_BARE_SYSTEM_382;
	conductor_N OH_BARE_SYSTEM_382;
	spacing line_Spacing_OH;
};

object line_configuration {
	name conf_OHLine_750;
	conductor_A OH_BARE_SYSTEM_506;
	conductor_B OH_BARE_SYSTEM_506;
	conductor_C OH_BARE_SYSTEM_506;
	conductor_N OH_BARE_SYSTEM_506;
	spacing line_Spacing_OH;
};

object line_configuration {
	name conf_OHLine_751;
	conductor_A OH_BARE_SYSTEM_492;
	conductor_B OH_BARE_SYSTEM_492;
	conductor_C OH_BARE_SYSTEM_492;
	conductor_N OH_BARE_SYSTEM_492;
	spacing line_Spacing_OH;
};

object line_configuration {
	name conf_OHLine_753;
	conductor_A OH_BARE_SYSTEM_528;
	conductor_B OH_BARE_SYSTEM_528;
	conductor_C OH_BARE_SYSTEM_528;
	conductor_N OH_BARE_SYSTEM_528;
	spacing line_Spacing_OH;
};

object line_configuration {
	name conf_OHLine_756;
	conductor_A OH_BARE_BUNDLED_508;
	conductor_B OH_BARE_BUNDLED_508;
	conductor_C OH_BARE_BUNDLED_508;
	conductor_N OH_BARE_BUNDLED_508;
	spacing line_Spacing_ABC;
};

object line_configuration {
	name conf_OHLine_757;
	conductor_A OH_BARE_SYSTEM_508;
	conductor_B OH_BARE_SYSTEM_508;
	conductor_C OH_BARE_SYSTEM_508;
	conductor_N OH_BARE_SYSTEM_508;
	spacing line_Spacing_OH;
};

object line_configuration {
	name conf_OHLine_758;
	conductor_A OH_BARE_SYSTEM_438;
	conductor_B OH_BARE_SYSTEM_438;
	conductor_C OH_BARE_SYSTEM_438;
	conductor_N OH_BARE_SYSTEM_438;
	spacing line_Spacing_OH;
};

object line_configuration {
	name conf_OHLine_760;
	conductor_A OH_BARE_BUNDLED_517;
	conductor_B OH_BARE_BUNDLED_517;
	conductor_C OH_BARE_BUNDLED_517;
	conductor_N OH_BARE_BUNDLED_517;
	spacing line_Spacing_ABC;
};

object line_configuration {
	name conf_OHLine_761;
	conductor_A OH_BARE_SYSTEM_528;
	conductor_B OH_BARE_SYSTEM_528;
	conductor_C OH_BARE_SYSTEM_528;
	conductor_N OH_BARE_SYSTEM_528;
	spacing line_Spacing_OH;
};

object line_configuration {
	name conf_OHLine_762;
	conductor_A OH_BARE_SYSTEM_16;
	conductor_B OH_BARE_SYSTEM_16;
	conductor_C OH_BARE_SYSTEM_16;
	conductor_N OH_BARE_SYSTEM_16;
	spacing line_Spacing_OH;
};

object line_configuration {
	name conf_OHLine_763;
	conductor_A OH_BARE_SYSTEM_77;
	conductor_B OH_BARE_SYSTEM_77;
	conductor_C OH_BARE_SYSTEM_77;
	conductor_N OH_BARE_SYSTEM_77;
	spacing line_Spacing_OH;
};

object line_configuration {
	name conf_OHLine_764;
	conductor_A OH_MISC_COVERED_15;
	conductor_B OH_MISC_COVERED_15;
	conductor_C OH_MISC_COVERED_15;
	conductor_N OH_MISC_COVERED_15;
	spacing line_Spacing_OH;
};

object line_configuration {
	name conf_OHLine_765;
	conductor_A OH_BARE_SYSTEM_60;
	conductor_B OH_BARE_SYSTEM_60;
	conductor_C OH_BARE_SYSTEM_60;
	conductor_N OH_BARE_SYSTEM_60;
	spacing line_Spacing_OH;
};

object line_configuration {
	name conf_OHLine_766;
	conductor_A OH_BARE_SYSTEM_38;
	conductor_B OH_BARE_SYSTEM_38;
	conductor_C OH_BARE_SYSTEM_38;
	conductor_N OH_BARE_SYSTEM_38;
	spacing line_Spacing_OH;
};

object line_configuration {
	name conf_OHLine_767;
	conductor_A OH_BARE_SYSTEM_128;
	conductor_B OH_BARE_SYSTEM_128;
	conductor_C OH_BARE_SYSTEM_128;
	conductor_N OH_BARE_SYSTEM_128;
	spacing line_Spacing_OH;
};

object line_configuration {
	name conf_OHLine_768;
	conductor_A OH_11KV_ABC_26;
	conductor_B OH_11KV_ABC_26;
	conductor_C OH_11KV_ABC_26;
	conductor_N OH_11KV_ABC_26;
	spacing line_Spacing_ABC;
};

object line_configuration {
	name conf_OHLine_769;
	conductor_A OH_11KV_ABC_35;
	conductor_B OH_11KV_ABC_35;
	conductor_C OH_11KV_ABC_35;
	conductor_N OH_11KV_ABC_35;
	spacing line_Spacing_ABC;
};

object line_configuration {
	name conf_OHLine_770;
	conductor_A OH_BARE_SYSTEM_111;
	conductor_B OH_BARE_SYSTEM_111;
	conductor_C OH_BARE_SYSTEM_111;
	conductor_N OH_BARE_SYSTEM_111;
	spacing line_Spacing_OH;
};

object line_configuration {
	name conf_OHLine_771;
	conductor_A OH_BARE_SYSTEM_15;
	conductor_B OH_BARE_SYSTEM_15;
	conductor_C OH_BARE_SYSTEM_15;
	conductor_N OH_BARE_SYSTEM_15;
	spacing line_Spacing_OH;
};

object line_configuration {
	name conf_OHLine_772;
	conductor_A OH_BARE_SYSTEM_57;
	conductor_B OH_BARE_SYSTEM_57;
	conductor_C OH_BARE_SYSTEM_57;
	conductor_N OH_BARE_SYSTEM_57;
	spacing line_Spacing_OH;
};

object line_configuration {
	name conf_OHLine_773;
	conductor_A OH_BARE_SYSTEM_49;
	conductor_B OH_BARE_SYSTEM_49;
	conductor_C OH_BARE_SYSTEM_49;
	conductor_N OH_BARE_SYSTEM_49;
	spacing line_Spacing_OH;
};

object line_configuration {
	name conf_OHLine_775;
	conductor_A OH_BARE_SYSTEM_15;
	conductor_B OH_BARE_SYSTEM_15;
	conductor_C OH_BARE_SYSTEM_15;
	conductor_N OH_BARE_SYSTEM_15;
	spacing line_Spacing_OH;
};

object line_configuration {
	name conf_OHLine_776;
	conductor_A OH_BARE_SYSTEM_220;
	conductor_B OH_BARE_SYSTEM_220;
	conductor_C OH_BARE_SYSTEM_220;
	conductor_N OH_BARE_SYSTEM_220;
...